/*---------------------------------------------------------------------------*\
| =========                 |                                                 |
| \\      /  F ield         | OpenFOAM: The Open Source CFD Toolbox           |
|  \\    /   O peration     | Version:  1.5                                   |
|   \\  /    A nd           | Web:      http://www.openfoam.org               |
|    \\/     M anipulation  |                                                 |
\*---------------------------------------------------------------------------*/

FoamFile
{
    version         2.0;
    format          ascii;
    class           dictionary;
    object          blockMeshDict;
}

// * * * * * * * * * * * * * * * * * * * * * * * * * * * * * * * * * * * * * //

scale		 0.001;

vertices        
(
	(0 0 0)		    //0
	(0 8 0)		    //1
	(32 8 0)	    //2
        (32 0 0)	    //3
        (0 0 -0.1)	    //4
	(0 8 -0.1)	    //5
	(32 8 -0.1)	    //6
	(32 0 -0.1)	    //7
);

blocks          
(
        hex (0 1 2 3 4 5 6 7) (80 320 1) simpleGrading (1 1 1)
);

edges           
(
);

boundary
(
    inlet
    {
        type			patch;
        faces
        (
            (0 1 5 4)
        );
    }
    outlet
    {
        type			patch;
        faces
        (
            (3 2 6 7)
        );
    }
    
    topWall 
    {
        type patch;
        faces
        (
            (1 2 6 5)
        );
    }

    bottomWall
    {
        type patch;
        faces
        (
            (0 4 7 3)
        );
    }

    backAndFront
    {
        type empty;
	faces
	(
	    (0 3 2 1)
	    (4 5 6 7)
	);
    }
);

mergePatchPairs
(
);

// ************************************************************************* //
